*version 9.2 376224541
u 5408
U? 110
S? 10
V? 232
R? 238
? 63
C? 51
D? 15
X? 25
Q? 5
@libraries
@analysis
.TRAN 1 0 0 0
+0 1m
+1 400m
+2 300m
+3 1m
@targets
@attributes
@translators
a 0 u 13 0 0 0 hln 100 PCBOARDS=PCB
a 0 u 13 0 0 0 hln 100 PSPICE=PSPICE
a 0 u 13 0 0 0 hln 100 XILINX=XILINX
@setup
unconnectedPins 0
connectViaLabel 0
connectViaLocalLabels 0
NoStim4ExtIFPortsWarnings 1
AutoGenStim4ExtIFPorts 1
@index
pageloc 1 0 8654 sine
pageloc 2 8654 3994 square
pageloc 3 12648 9787 SAWTOOTH
pageloc 4 22435 8652 triangle 
pageloc 5 31087 8118 VCR
pageloc 6 39205 11600 super position
pageloc 7 50805 2667 FINAL_PAGE
pageloc 8 53472 5376 TESTCKT
@status
n 2453 123:08:02:02:08:24;1693598904 e 
s 0 123:08:02:02:08:39;1693598919 e 
c 123:08:02:02:08:15;1693598895
*page 1 0 1520 970 iB
@ports
port 3594 GND_EARTH 200 370 h
port 3595 GND_EARTH 130 370 h
port 3596 GND_ANALOG 460 260 h
port 3599 OFFPAGE 150 70 h
a 1 xr 3 0 23 8 hcn 100 LABEL=RSIN1
port 3600 OFFPAGE 150 110 h
a 1 xr 3 0 23 8 hcn 100 LABEL=RSIN2
port 3601 OFFPAGE 110 240 h
a 1 xr 3 0 23 8 hcn 100 LABEL=RSIN3
port 3602 OFFPAGE 110 280 h
a 1 xr 3 0 23 8 hcn 100 LABEL=RSIN4
port 3605 OFFPAGE 790 150 u
a 1 xr 3 0 23 8 hcn 100 LABEL=VSIN
port 3606 OFFPAGE 700 240 v
a 1 xr 3 0 23 8 hcn 100 LABEL=RAMPSIN1
port 3607 OFFPAGE 730 240 v
a 1 xr 3 0 23 8 hcn 100 LABEL=RAMPSIN2
port 3615 OFFPAGE 360 150 d
a 1 xr 3 0 23 8 hcn 100 LABEL=+VCC
port 3617 OFFPAGE 510 130 d
a 1 xr 3 0 23 8 hcn 100 LABEL=-VCC
port 3618 OFFPAGE 360 210 v
a 1 xr 3 0 23 8 hcn 100 LABEL=-VCC
port 3619 OFFPAGE 510 190 v
a 1 xr 3 0 23 8 hcn 100 LABEL=+VCC
port 3616 OFFPAGE 710 120 d
a 1 xr 3 0 23 8 hcn 100 LABEL=+VCC
port 3620 OFFPAGE 710 180 v
a 1 xr 3 0 23 8 hcn 100 LABEL=-VCC
port 3608 GND_ANALOG 650 130 h
@parts
part 3571 R 460 200 d
a 0 sp 0 0 0 10 hlb 100 PART=R
a 0 s 0:13 0 0 0 hln 100 PKGTYPE=
a 0 u 13 0 15 25 hln 100 VALUE=31.83k
a 0 a 0:13 0 0 0 hln 100 PKGREF=R169
a 0 ap 9 0 15 0 hln 100 REFDES=R169
part 3575 r 200 200 h
a 0 u 13 0 15 25 hln 100 VALUE=10k
a 0 sp 0 0 0 10 hlb 100 PART=r
a 0 s 0:13 0 0 0 hln 100 PKGTYPE=RC05
a 0 s 0:13 0 0 0 hln 100 GATE=
a 0 a 0:13 0 0 0 hln 100 PKGREF=R170
a 0 ap 9 0 15 0 hln 100 REFDES=R170
part 3576 r 310 310 h
a 0 sp 0 0 0 10 hlb 100 PART=r
a 0 s 0:13 0 0 0 hln 100 PKGTYPE=RC05
a 0 s 0:13 0 0 0 hln 100 GATE=
a 0 u 13 0 10 30 hln 100 VALUE=20k
a 0 u 13 0 16 38 hlb 100 TOLERANCE=
a 0 a 0:13 0 0 0 hln 100 PKGREF=R171
a 0 ap 9 0 15 0 hln 100 REFDES=R171
part 3577 R 260 380 h
a 0 sp 0 0 0 10 hlb 100 PART=R
a 0 s 0:13 0 0 0 hln 100 PKGTYPE=
a 0 u 13 0 15 25 hln 100 VALUE=200k
a 0 a 0:13 0 0 0 hln 100 PKGREF=R172
a 0 ap 9 0 15 0 hln 100 REFDES=R172
part 3579 c 440 180 u
a 0 sp 0 0 0 10 hlb 100 PART=c
a 0 s 0:13 0 0 0 hln 100 PKGTYPE=
a 0 u 13 0 15 25 hln 100 VALUE=1u
a 0 a 0:13 0 0 0 hln 100 PKGREF=C34
a 0 ap 9 0 15 0 hln 100 REFDES=C34
part 3580 VDC 350 360 d
a 0 sp 0 0 22 37 hln 100 PART=VDC
a 1 u 13 0 -11 18 hcn 100 DC=2.5
a 0 a 0:13 0 0 0 hln 100 PKGREF=V154
a 1 ap 9 0 24 7 hcn 100 REFDES=V154
part 3581 VDC 320 400 v
a 0 sp 0 0 22 37 hln 100 PART=VDC
a 1 u 13 0 -11 18 hcn 100 DC=2.5
a 0 a 0:13 0 0 0 hln 100 PKGREF=V155
a 1 ap 9 0 24 7 hcn 100 REFDES=V155
part 3583 D1N4001 400 360 u
a 0 sp 11 0 15 25 hln 100 PART=D1N4001
a 0 s 0:13 0 0 0 hln 100 PKGTYPE=
a 0 a 0:13 0 0 0 hln 100 PKGREF=D13
a 0 ap 9 0 15 0 hln 100 REFDES=D13
part 3584 D1N4001 370 400 h
a 0 sp 11 0 15 25 hln 100 PART=D1N4001
a 0 s 0:13 0 0 0 hln 100 PKGTYPE=
a 0 a 0:13 0 0 0 hln 100 PKGREF=D14
a 0 ap 9 0 15 0 hln 100 REFDES=D14
part 3587 R 500 60 h
a 0 sp 0 0 0 10 hlb 100 PART=R
a 0 s 0:13 0 0 0 hln 100 PKGTYPE=
a 0 u 13 0 15 25 hln 100 VALUE=31.83k
a 0 a 0:13 0 0 0 hln 100 PKGREF=R173
a 0 ap 9 0 15 0 hln 100 REFDES=R173
part 3585 c 150 110 d
a 0 sp 0 0 0 10 hlb 100 PART=c
a 0 s 0:13 0 0 0 hln 100 PKGTYPE=CK05
a 0 s 0:13 0 0 0 hln 100 GATE=
a 0 u 0 0 0 0 hln 100 IC=0
a 0 a 0:13 0 0 0 hln 100 PKGREF=C35
a 0 ap 9 0 15 0 hln 100 REFDES=C35
a 0 u 13 0 15 35 hln 100 VALUE=10u
part 3573 c 150 240 d
a 0 sp 0 0 0 10 hlb 100 PART=c
a 0 s 0:13 0 0 0 hln 100 PKGTYPE=CK05
a 0 s 0:13 0 0 0 hln 100 GATE=
a 0 u 0 0 0 0 hln 100 IC=0
a 0 a 0:13 0 0 0 hln 100 PKGREF=C33
a 0 ap 9 0 15 0 hln 100 REFDES=C33
a 0 u 13 0 -1 27 hln 100 VALUE=10u
part 3574 uA741 320 160 h
a 0 sp 11 0 0 70 hcn 100 PART=uA741
a 0 s 0:13 0 0 0 hln 100 PKGTYPE=
a 0 a 0:13 0 0 0 hln 100 PKGREF=U65
a 0 ap 9 0 14 0 hln 100 REFDES=U65
part 3586 uA741 470 180 U
a 0 sp 11 0 0 70 hcn 100 PART=uA741
a 0 s 0:13 0 0 0 hln 100 PKGTYPE=
a 0 a 0:13 0 0 0 hln 100 PKGREF=U66
a 0 ap 9 0 14 0 hln 100 REFDES=U66
part 3591 R 600 160 h
a 0 sp 0 0 0 10 hlb 100 PART=R
a 0 s 0:13 0 0 0 hln 100 PKGTYPE=
a 0 u 13 0 15 25 hln 100 VALUE=5
a 0 a 0:13 0 0 0 hln 100 PKGREF=R174
a 0 ap 9 0 15 0 hln 100 REFDES=R174
part 3658 LM675 670 130 h
a 0 sp 11 0 48 68 hln 100 PART=LM675
a 0 s 0:13 0 0 0 hln 100 PKGTYPE=
a 0 a 0:13 0 0 0 hln 100 PKGREF=U68
a 0 ap 9 0 14 0 hln 100 REFDES=U68
part 501 titleblk 1520 970 h
a 1 s 13 0 350 10 hcn 100 PAGESIZE=B
a 1 s 13 0 180 60 hcn 100 PAGETITLE=sine
a 1 s 13 0 340 95 hrn 100 PAGECOUNT=7
a 1 s 13 0 300 95 hrn 100 PAGENO=1
@conn
w 3467
a 0 up 0:33 0 0 0 hln 100 V=
s 200 370 200 200 3466
a 0 up 33 0 202 300 hlt 100 V=
w 3469
a 0 up 0:33 0 0 0 hln 100 V=
s 460 240 460 260 3468
a 0 up 33 0 462 250 hlt 100 V=
w 3471
a 0 up 0:33 0 0 0 hln 100 V=
s 440 180 460 180 3470
s 460 180 460 200 3472
a 0 up 33 0 462 190 hlt 100 V=
s 460 180 470 180 3474
w 3477
a 0 up 0:33 0 0 0 hln 100 V=
s 320 200 260 200 3478
s 260 200 240 200 3484
s 260 380 260 310 3482
a 0 up 33 0 262 255 hlt 100 V=
s 260 310 260 200 3487
a 0 up 33 0 262 255 hlt 100 V=
s 310 310 260 310 3485
a 0 up 33 0 262 260 hlt 100 V=
w 3489
a 0 up 0:33 0 0 0 hln 100 V=
s 310 360 300 360 3490
s 300 400 320 400 3492
s 300 360 300 380 3494
a 0 up 33 0 302 390 hlt 100 V=
s 300 380 300 400 3578
a 0 up 33 0 302 390 hlt 100 V=
w 3497
a 0 up 0:33 0 0 0 hln 100 V=
s 370 360 350 360 3496
a 0 up 33 0 360 359 hct 100 V=
w 3499
a 0 up 0:33 0 0 0 hln 100 V=
s 360 400 370 400 3498
a 0 up 33 0 365 399 hct 100 V=
w 3501
a 0 up 0:33 0 0 0 hln 100 V=
s 470 140 460 140 3500
s 460 60 500 60 3502
s 460 140 460 60 3504
a 0 up 33 0 462 100 hlt 100 V=
w 3507
a 0 up 0:33 0 0 0 hln 100 V=
s 410 360 400 360 3506
s 410 180 400 180 3508
a 0 up 33 0 405 179 hct 100 V=
s 410 180 410 50 3510
s 410 50 150 50 3512
a 0 up 33 0 280 49 hct 100 V=
s 150 70 150 50 3514
s 410 180 410 310 3518
s 410 310 410 360 3522
s 350 310 410 310 3520
a 0 up 33 0 485 309 hct 100 V=
s 410 400 410 360 3523
s 410 400 400 400 3525
w 3528
a 0 up 0:33 0 0 0 hln 100 V=
s 150 140 150 160 3527
s 110 240 110 160 3529
a 0 up 33 0 112 200 hlt 100 V=
s 150 160 110 160 3531
s 150 240 150 160 3533
s 320 160 150 160 3535
a 0 up 33 0 235 159 hct 100 V=
w 3538
a 0 up 0:33 0 0 0 hln 100 V=
s 130 330 150 330 3537
s 130 370 130 330 3539
s 110 280 110 330 3541
s 110 330 130 330 3543
s 150 330 150 270 3545
a 0 up 33 0 152 300 hlt 100 V=
w 3552
a 0 up 0:33 0 0 0 hln 100 V=
s 730 240 780 240 3551
s 780 150 750 150 3553
a 0 up 33 0 780 149 hct 100 V=
s 780 240 780 150 3555
a 0 up 33 0 782 195 hlt 100 V=
s 780 150 790 150 3557
w 3669
s 650 130 670 130 3668
w 3560
a 0 up 0:33 0 0 0 hln 100 V=
s 570 160 550 160 3559
s 570 60 570 160 3561
a 0 up 33 0 572 110 hlt 100 V=
s 540 60 570 60 3563
s 600 160 570 160 3567
w 3548
a 0 up 0:33 0 0 0 hln 100 V=
s 700 240 670 240 3547
s 670 240 670 170 3611
a 0 up 33 0 672 220 hlt 100 V=
s 640 160 670 160 3660
s 670 160 670 170 3671
@junction
j 460 180
+ w 3471
+ w 3471
j 260 200
+ w 3477
+ w 3477
j 260 310
+ w 3477
+ w 3477
j 410 180
+ w 3507
+ w 3507
j 410 310
+ w 3507
+ w 3507
j 410 360
+ w 3507
+ w 3507
j 150 160
+ w 3528
+ w 3528
j 130 330
+ w 3538
+ w 3538
j 780 150
+ w 3552
+ w 3552
j 460 240
+ p 3571 2
+ w 3469
j 460 200
+ p 3571 1
+ w 3471
j 150 240
+ p 3573 1
+ w 3528
j 150 270
+ p 3573 2
+ w 3538
j 320 200
+ p 3574 -
+ w 3477
j 400 180
+ p 3574 OUT
+ w 3507
j 320 160
+ p 3574 +
+ w 3528
j 200 200
+ p 3575 1
+ w 3467
j 240 200
+ p 3575 2
+ w 3477
j 310 310
+ p 3576 1
+ w 3477
j 350 310
+ p 3576 2
+ w 3507
j 260 380
+ p 3577 1
+ w 3477
j 300 380
+ p 3577 2
+ w 3489
j 440 180
+ p 3579 1
+ w 3471
j 410 180
+ p 3579 2
+ w 3507
j 310 360
+ p 3580 -
+ w 3489
j 350 360
+ p 3580 +
+ w 3497
j 320 400
+ p 3581 +
+ w 3489
j 360 400
+ p 3581 -
+ w 3499
j 370 360
+ p 3583 2
+ w 3497
j 400 360
+ p 3583 1
+ w 3507
j 370 400
+ p 3584 1
+ w 3499
j 400 400
+ p 3584 2
+ w 3507
j 150 140
+ p 3585 2
+ w 3528
j 470 180
+ p 3586 +
+ w 3471
j 470 140
+ p 3586 -
+ w 3501
j 550 160
+ p 3586 OUT
+ w 3560
j 500 60
+ p 3587 1
+ w 3501
j 540 60
+ p 3587 2
+ w 3560
j 200 370
+ s 3594
+ w 3467
j 130 370
+ s 3595
+ w 3538
j 460 260
+ s 3596
+ w 3469
j 150 70
+ s 3599
+ w 3507
j 150 110
+ s 3600
+ p 3585 1
j 110 240
+ s 3601
+ w 3528
j 110 280
+ s 3602
+ w 3538
j 790 150
+ s 3605
+ w 3552
j 700 240
+ s 3606
+ w 3548
j 730 240
+ s 3607
+ w 3552
j 360 150
+ s 3615
+ p 3574 V+
j 510 130
+ s 3617
+ p 3586 V-
j 360 210
+ s 3618
+ p 3574 V-
j 510 190
+ s 3619
+ p 3586 V+
j 710 120
+ p 3658 V+
+ s 3616
j 710 180
+ p 3658 V-
+ s 3620
j 750 150
+ p 3658 OUT
+ w 3552
j 670 170
+ p 3658 -
+ w 3548
j 650 130
+ s 3608
+ w 3669
j 670 130
+ p 3658 +
+ w 3669
j 600 160
+ p 3591 1
+ w 3560
j 570 160
+ w 3560
+ w 3560
j 640 160
+ p 3591 2
+ w 3548
@attributes
a 0 s 0:13 0 0 0 hln 100 PAGETITLE=sine
a 0 s 0:13 0 0 0 hln 100 PAGENO=1
a 0 s 0:13 0 0 0 hln 100 PAGESIZE=B
a 0 s 0:13 0 0 0 hln 100 PAGECOUNT=7
@graphics
*page 2 0 1520 970 iB
@ports
port 2382 GND_ANALOG 890 240 h
port 2623 OFFPAGE 920 350 v
a 1 xr 3 0 23 8 hcn 100 LABEL=RAMPSQUARE1
port 2624 OFFPAGE 950 350 v
a 1 xr 3 0 23 8 hcn 100 LABEL=RAMPSQUARE2
port 1898 OFFPAGE 1000 260 u
a 1 xr 3 0 17 8 hcn 100 LABEL=VSQUARE
port 3623 OFFPAGE 930 230 d
a 1 xr 3 0 23 8 hcn 100 LABEL=+VCC
port 3624 OFFPAGE 930 290 v
a 1 xr 3 0 23 8 hcn 100 LABEL=-VCC
port 3799 GND_ANALOG 730 280 u
port 3800 GND_ANALOG 730 420 h
port 3801 GND_ANALOG 600 330 h
port 3802 GND_ANALOG 800 500 h
port 3817 OFFPAGE 710 230 d
a 1 xr 3 0 23 8 hcn 100 LABEL=RSQUARE1
port 3818 OFFPAGE 750 230 d
a 1 xr 3 0 23 8 hcn 100 LABEL=RSQUARE2
@parts
part 2374 LM675 890 240 h
a 0 sp 11 0 48 68 hln 100 PART=LM675
a 0 s 0:13 0 0 0 hln 100 PKGTYPE=
a 0 a 0:13 0 0 0 hln 100 PKGREF=U48
a 0 ap 9 0 14 0 hln 100 REFDES=U48
part 2375 R 850 350 h
a 0 sp 0 0 0 10 hlb 100 PART=R
a 0 s 0:13 0 0 0 hln 100 PKGTYPE=
a 0 a 0:13 0 0 0 hln 100 PKGREF=R111
a 0 ap 9 0 15 0 hln 100 REFDES=R111
part 3792 uA741 690 370 U
a 0 sp 11 0 0 70 hcn 100 PART=uA741
a 0 s 0:13 0 0 0 hln 100 PKGTYPE=
a 0 a 0:13 0 0 0 hln 100 PKGREF=U69
a 0 ap 9 0 14 0 hln 100 REFDES=U69
part 3794 R 800 460 d
a 0 sp 0 0 0 10 hlb 100 PART=R
a 0 s 0:13 0 0 0 hln 100 PKGTYPE=
a 0 a 0:13 0 0 0 hln 100 PKGREF=R182
a 0 ap 9 0 15 0 hln 100 REFDES=R182
part 3795 c 620 330 h
a 0 sp 0 0 0 10 hlb 100 PART=c
a 0 s 0:13 0 0 0 hln 100 PKGTYPE=
a 0 u 13 0 15 25 hln 100 VALUE=10u
a 0 a 0:13 0 0 0 hln 100 PKGREF=C36
a 0 ap 9 0 15 0 hln 100 REFDES=C36
part 3797 VDC 730 280 h
a 0 sp 0 0 22 37 hln 100 PART=VDC
a 1 u 13 0 -11 18 hcn 100 DC=1.2
a 0 a 0:13 0 0 0 hln 100 PKGREF=V160
a 1 ap 9 0 24 7 hcn 100 REFDES=V160
part 3798 VDC 730 380 h
a 0 sp 0 0 22 37 hln 100 PART=VDC
a 1 u 13 0 -11 18 hcn 100 DC=1.2
a 0 a 0:13 0 0 0 hln 100 PKGREF=V161
a 1 ap 9 0 24 7 hcn 100 REFDES=V161
part 3793 R 800 350 d
a 0 sp 0 0 0 10 hlb 100 PART=R
a 0 s 0:13 0 0 0 hln 100 PKGTYPE=
a 0 a 0:13 0 0 0 hln 100 PKGREF=R181
a 0 ap 9 0 15 0 hln 100 REFDES=R181
part 1220 titleblk 1520 970 h
a 1 s 13 0 350 10 hcn 100 PAGESIZE=B
a 1 s 13 0 180 60 hcn 100 PAGETITLE=square
a 1 s 13 0 340 95 hrn 100 PAGECOUNT=7
a 1 s 13 0 300 95 hrn 100 PAGENO=2
@conn
w 2358
a 0 up 0:33 0 0 0 hln 100 V=
s 920 350 890 350 2359
s 890 350 890 280 2380
a 0 up 33 0 892 310 hlt 100 V=
w 2348
a 0 up 0:33 0 0 0 hln 100 V=
s 950 350 1000 350 2349
s 1000 350 1000 260 2355
a 0 up 33 0 1002 305 hlt 100 V=
s 1000 260 970 260 2688
w 3785
a 0 up 0:33 0 0 0 hln 100 V=
s 800 460 680 460 3790
a 0 up 33 0 740 459 hct 100 V=
s 800 460 800 390 3788
s 680 460 680 370 3786
s 680 370 690 370 3784
w 3783
a 0 up 0:33 0 0 0 hln 100 V=
s 620 330 600 330 3782
a 0 up 33 0 610 329 hct 100 V=
w 3775
a 0 up 0:33 0 0 0 hln 100 V=
s 670 330 650 330 3780
s 670 230 670 330 3778
a 0 up 33 0 672 280 hlt 100 V=
s 670 330 690 330 3776
s 710 230 670 230 3774
w 2390
a 0 up 0:33 0 0 0 hln 100 V=
s 850 350 800 350 2393
s 800 230 800 350 3772
a 0 up 33 0 802 290 hlt 100 V=
s 800 350 770 350 3770
s 750 230 800 230 3768
@junction
j 970 260
+ p 2374 OUT
+ w 2348
j 890 240
+ s 2382
+ p 2374 +
j 890 280
+ p 2374 -
+ w 2358
j 1000 260
+ s 1898
+ w 2348
j 920 350
+ s 2623
+ w 2358
j 950 350
+ s 2624
+ w 2348
j 890 350
+ p 2375 2
+ w 2358
j 930 230
+ s 3623
+ p 2374 V+
j 930 290
+ s 3624
+ p 2374 V-
j 850 350
+ p 2375 1
+ w 2390
j 730 320
+ p 3792 V-
+ p 3797 -
j 730 380
+ p 3792 V+
+ p 3798 +
j 800 350
+ p 3793 1
+ w 2390
j 800 500
+ p 3794 2
+ s 3802
j 730 280
+ p 3797 +
+ s 3799
j 730 420
+ p 3798 -
+ s 3800
j 800 460
+ p 3794 1
+ w 3785
j 800 390
+ p 3793 2
+ w 3785
j 690 370
+ p 3792 +
+ w 3785
j 620 330
+ p 3795 1
+ w 3783
j 600 330
+ s 3801
+ w 3783
j 650 330
+ p 3795 2
+ w 3775
j 690 330
+ p 3792 -
+ w 3775
j 670 330
+ w 3775
+ w 3775
j 770 350
+ p 3792 OUT
+ w 2390
j 710 230
+ s 3817
+ w 3775
j 750 230
+ s 3818
+ w 2390
@attributes
a 0 s 0:13 0 0 0 hln 100 PAGETITLE=square
a 0 s 0:13 0 0 0 hln 100 PAGENO=2
a 0 s 0:13 0 0 0 hln 100 PAGESIZE=B
a 0 s 0:13 0 0 0 hln 100 PAGECOUNT=7
@graphics
*page 3 0 1520 970 iB
@ports
port 1475 GND_ANALOG 250 300 h
port 1476 GND_ANALOG 160 300 h
port 1481 GND_ANALOG 690 310 h
port 1495 GND_ANALOG 590 370 h
port 1494 GND_ANALOG 480 360 h
port 2269 OFFPAGE 170 260 d
a 1 xr 3 0 23 8 hcn 100 LABEL=RSAW1
port 2270 OFFPAGE 210 260 d
a 1 xr 3 0 23 8 hcn 100 LABEL=RSAW2
port 2440 GND_ANALOG 480 410 h
port 2625 OFFPAGE 510 520 v
a 1 xr 3 0 23 8 hcn 100 LABEL=RAMPSAW1
port 2626 OFFPAGE 540 520 v
a 1 xr 3 0 23 8 hcn 100 LABEL=RAMPSAW2
port 1496 OFFPAGE 590 430 u
a 1 xr 3 0 17 8 hcn 100 LABEL=VSAW
port 3122 GND_ANALOG 310 450 h
port 3627 OFFPAGE 550 130 d
a 1 xr 3 0 23 8 hcn 100 LABEL=+VCC
port 3628 OFFPAGE 550 190 v
a 1 xr 3 0 23 8 hcn 100 LABEL=-VCC
port 3625 OFFPAGE 300 250 d
a 1 xr 3 0 23 8 hcn 100 LABEL=-VCC
port 3626 OFFPAGE 300 310 v
a 1 xr 3 0 23 8 hcn 100 LABEL=+VCC
port 3631 OFFPAGE 520 400 d
a 1 xr 3 0 23 8 hcn 100 LABEL=+VCC
port 3629 OFFPAGE 350 440 d
a 1 xr 3 0 23 8 hcn 100 LABEL=+VCC
port 3632 OFFPAGE 520 460 v
a 1 xr 3 0 23 8 hcn 100 LABEL=-VCC
port 3630 OFFPAGE 350 500 v
a 1 xr 3 0 23 8 hcn 100 LABEL=-VCC
port 5407 GND_ANALOG 160 580 h
@parts
part 1449 R 380 60 h
a 0 u 13 0 15 25 hln 100 VALUE=10K
a 0 sp 0 0 0 10 hlb 100 PART=R
a 0 s 0:13 0 0 0 hln 100 PKGTYPE=
a 0 a 0:13 0 0 0 hln 100 PKGREF=R55
a 0 ap 9 0 15 0 hln 100 REFDES=R55
part 1450 R 740 190 d
a 0 u 13 0 15 25 hln 100 VALUE=10k
a 0 sp 0 0 0 10 hlb 100 PART=R
a 0 s 0:13 0 0 0 hln 100 PKGTYPE=
a 0 a 0:13 0 0 0 hln 100 PKGREF=R56
a 0 ap 9 0 15 0 hln 100 REFDES=R56
part 1451 D1N4001 740 250 d
a 0 sp 11 0 3 1 hln 100 PART=D1N4001
a 0 s 0:13 0 0 0 hln 100 PKGTYPE=
a 0 a 0:13 0 0 0 hln 100 PKGREF=D7
a 0 ap 9 0 15 0 hln 100 REFDES=D7
part 1453 D1N4001 480 60 u
a 0 sp 11 0 15 25 hln 100 PART=D1N4001
a 0 s 0:13 0 0 0 hln 100 PKGTYPE=
a 0 a 0:13 0 0 0 hln 100 PKGREF=D8
a 0 ap 9 0 15 0 hln 100 REFDES=D8
part 1454 2N3055 710 290 H
a 0 sp 11 0 25 40 hln 100 PART=2N3055
a 0 s 0:13 0 0 0 hln 100 PKGTYPE=
a 0 a 0:13 0 0 0 hln 100 PKGREF=Q3
a 0 ap 9 0 5 5 hln 100 REFDES=Q3
part 1455 R 630 210 h
a 0 sp 0 0 0 10 hlb 100 PART=R
a 0 s 0:13 0 0 0 hln 100 PKGTYPE=
a 0 u 13 0 15 25 hln 100 VALUE=100
a 0 a 0:13 0 0 0 hln 100 PKGREF=R58
a 0 ap 9 0 15 0 hln 100 REFDES=R58
part 1457 R 530 320 h
a 0 sp 0 0 0 10 hlb 100 PART=R
a 0 s 0:13 0 0 0 hln 100 PKGTYPE=
a 0 u 13 0 15 25 hln 100 VALUE=5k
a 0 a 0:13 0 0 0 hln 100 PKGREF=R60
a 0 ap 9 0 15 0 hln 100 REFDES=R60
part 1456 R 590 330 d
a 0 sp 0 0 0 10 hlb 100 PART=R
a 0 s 0:13 0 0 0 hln 100 PKGTYPE=
a 0 u 13 0 15 25 hln 100 VALUE=10k
a 0 a 0:13 0 0 0 hln 100 PKGREF=R59
a 0 ap 9 0 15 0 hln 100 REFDES=R59
part 1458 VDC 480 320 h
a 1 u 13 0 -9 22 hcn 100 DC=1.5
a 0 sp 0 0 22 37 hln 100 PART=VDC
a 0 a 0:13 0 0 0 hln 100 PKGREF=V73
a 1 ap 9 0 24 7 hcn 100 REFDES=V73
part 1459 VDC 160 300 u
a 0 sp 0 0 22 37 hln 100 PART=VDC
a 0 a 0:13 0 0 0 hln 100 PKGREF=V74
a 1 ap 9 0 24 7 hcn 100 REFDES=V74
a 1 u 13 0 -11 18 hcn 100 DC=1m
part 1463 2N3055 310 90 d
a 0 sp 11 0 25 40 hln 100 PART=2N3055
a 0 s 0:13 0 0 0 hln 100 PKGTYPE=
a 0 a 0:13 0 0 0 hln 100 PKGREF=Q4
a 0 ap 9 0 5 5 hln 100 REFDES=Q4
part 3459 c 290 180 h
a 0 sp 0 0 0 10 hlb 100 PART=c
a 0 s 0:13 0 0 0 hln 100 PKGTYPE=
a 0 a 0:13 0 0 0 hln 100 PKGREF=C30
a 0 ap 9 0 15 0 hln 100 REFDES=C30
a 0 u 13 0 15 25 hln 100 VALUE=1u
part 1460 uA741 260 300 U
a 0 sp 11 0 0 70 hcn 100 PART=uA741
a 0 s 0:13 0 0 0 hln 100 PKGTYPE=
a 0 a 0:13 0 0 0 hln 100 PKGREF=U26
a 0 ap 9 0 14 0 hln 100 REFDES=U26
part 1461 uA741 510 140 h
a 0 sp 11 0 0 70 hcn 100 PART=uA741
a 0 s 0:13 0 0 0 hln 100 PKGTYPE=
a 0 a 0:13 0 0 0 hln 100 PKGREF=U27
a 0 ap 9 0 14 0 hln 100 REFDES=U27
part 3085 uA741 310 450 h
a 0 sp 11 0 0 70 hcn 100 PART=uA741
a 0 s 0:13 0 0 0 hln 100 PKGTYPE=
a 0 a 0:13 0 0 0 hln 100 PKGREF=U60
a 0 ap 9 0 14 0 hln 100 REFDES=U60
part 2432 LM675 480 410 h
a 0 sp 11 0 48 68 hln 100 PART=LM675
a 0 s 0:13 0 0 0 hln 100 PKGTYPE=
a 0 a 0:13 0 0 0 hln 100 PKGREF=U49
a 0 ap 9 0 14 0 hln 100 REFDES=U49
part 3091 R 180 490 h
a 0 sp 0 0 0 10 hlb 100 PART=R
a 0 s 0:13 0 0 0 hln 100 PKGTYPE=
a 0 a 0:13 0 0 0 hln 100 PKGREF=R161
a 0 ap 9 0 15 0 hln 100 REFDES=R161
part 3090 R 320 570 h
a 0 sp 0 0 0 10 hlb 100 PART=R
a 0 s 0:13 0 0 0 hln 100 PKGTYPE=
a 0 a 0:13 0 0 0 hln 100 PKGREF=R160
a 0 ap 9 0 15 0 hln 100 REFDES=R160
part 5399 R 180 520 h
a 0 sp 0 0 0 10 hlb 100 PART=R
a 0 s 0:13 0 0 0 hln 100 PKGTYPE=
a 0 a 0:13 0 0 0 hln 100 PKGREF=R237
a 0 ap 9 0 15 0 hln 100 REFDES=R237
part 5398 VDC 160 540 h
a 0 sp 0 0 22 37 hln 100 PART=VDC
a 0 a 0:13 0 0 0 hln 100 PKGREF=V231
a 1 ap 9 0 24 7 hcn 100 REFDES=V231
a 1 u 13 0 -11 18 hcn 100 DC=-.52
part 2433 R 440 510 h
a 0 sp 0 0 0 10 hlb 100 PART=R
a 0 s 0:13 0 0 0 hln 100 PKGTYPE=
a 0 a 0:13 0 0 0 hln 100 PKGREF=R116
a 0 ap 9 0 15 0 hln 100 REFDES=R116
a 0 u 13 0 15 25 hln 100 VALUE=.5k
part 1326 titleblk 1520 970 h
a 1 s 13 0 350 10 hcn 100 PAGESIZE=B
a 1 s 13 0 180 60 hcn 100 PAGETITLE=SAWTOOTH
a 1 s 13 0 340 95 hrn 100 PAGECOUNT=8
a 1 s 13 0 300 95 hrn 100 PAGENO=3
@conn
w 1371
a 0 up 0:33 0 0 0 hln 100 V=
s 480 300 480 180 1370
a 0 up 33 0 482 240 hlt 100 V=
s 480 180 510 180 1372
s 590 300 480 300 1374
s 590 300 590 210 1376
s 590 330 590 320 1378
s 590 320 570 320 1380
s 590 320 590 300 1382
s 590 210 630 210 1384
a 0 up 33 0 610 209 hct 100 V=
w 1387
a 0 up 0:33 0 0 0 hln 100 V=
s 480 320 530 320 1386
a 0 up 33 0 505 319 hct 100 V=
w 1391
a 0 up 0:33 0 0 0 hln 100 V=
s 740 290 740 280 1390
s 710 290 740 290 1392
a 0 up 33 0 725 289 hct 100 V=
w 1395
a 0 up 0:33 0 0 0 hln 100 V=
s 670 210 690 210 1394
s 690 210 690 270 1396
a 0 up 33 0 692 240 hlt 100 V=
w 1399
a 0 up 0:33 0 0 0 hln 100 V=
s 310 60 310 90 1398
s 380 60 310 60 1400
a 0 up 33 0 345 59 hct 100 V=
w 1416
a 0 up 0:33 0 0 0 hln 100 V=
s 740 60 740 160 1415
s 480 60 740 60 1417
a 0 up 33 0 610 59 hct 100 V=
s 740 160 590 160 1419
s 740 190 740 160 1421
w 1428
a 0 up 0:33 0 0 0 hln 100 V=
s 250 300 260 300 1427
a 0 up 33 0 255 299 hct 100 V=
w 1430
a 0 up 0:33 0 0 0 hln 100 V=
s 740 230 740 250 1429
a 0 up 33 0 742 240 hlt 100 V=
w 1432
a 0 up 0:33 0 0 0 hln 100 V=
s 420 60 450 60 1431
a 0 up 33 0 435 59 hct 100 V=
w 1424
a 0 up 0:33 0 0 0 hln 100 V=
s 170 260 160 260 1423
a 0 up 33 0 165 259 hct 100 V=
w 2416
a 0 up 0:33 0 0 0 hln 100 V=
s 480 510 480 450 2438
s 480 520 480 510 2425
a 0 up 33 0 482 500 hlt 100 V=
s 510 520 480 520 2417
w 2406
a 0 up 0:33 0 0 0 hln 100 V=
s 590 520 590 430 2413
a 0 up 33 0 592 475 hlt 100 V=
s 590 430 560 430 2411
s 540 520 590 520 2407
w 3108
a 0 up 0:33 0 0 0 hln 100 V=
s 360 570 410 570 3107
s 410 510 440 510 3111
s 410 570 410 510 3109
a 0 up 33 0 412 540 hlt 100 V=
s 390 470 410 470 3087
s 410 470 410 510 3113
w 1403
a 0 up 0:33 0 0 0 hln 100 V=
s 210 260 230 260 1410
s 290 110 230 110 1406
s 230 260 260 260 3175
s 230 110 230 180 1412
a 0 up 33 0 232 220 hlt 100 V=
s 230 180 230 260 3178
s 230 180 290 180 1408
w 3097
a 0 up 0:33 0 0 0 hln 100 V=
s 370 280 340 280 1337
s 450 280 450 140 1333
a 0 up 33 0 452 210 hlt 100 V=
s 450 140 510 140 1331
s 370 280 370 380 2043
s 370 380 80 380 2045
a 0 up 33 0 225 379 hct 100 V=
s 370 280 450 280 2707
s 370 110 330 110 1339
s 370 280 370 180 1341
s 370 180 370 110 3186
s 320 180 370 180 1343
s 180 490 80 490 3096
s 80 490 80 380 3098
w 5401
s 160 540 160 520 5400
s 160 520 180 520 5402
w 3103
a 0 up 0:33 0 0 0 hln 100 V=
s 220 490 270 490 3092
a 0 up 33 0 245 489 hct 100 V=
s 320 570 270 570 3102
s 270 490 310 490 5395
s 270 570 270 520 3104
s 270 520 270 490 5406
s 220 520 270 520 5404
@junction
j 370 280
+ w 3097
+ w 3097
j 590 300
+ w 1371
+ w 1371
j 590 320
+ w 1371
+ w 1371
j 740 160
+ w 1416
+ w 1416
j 380 60
+ p 1449 1
+ w 1399
j 420 60
+ p 1449 2
+ w 1432
j 740 190
+ p 1450 1
+ w 1416
j 740 230
+ p 1450 2
+ w 1430
j 740 280
+ p 1451 2
+ w 1391
j 740 250
+ p 1451 1
+ w 1430
j 480 60
+ p 1453 1
+ w 1416
j 450 60
+ p 1453 2
+ w 1432
j 710 290
+ p 1454 b
+ w 1391
j 690 270
+ p 1454 c
+ w 1395
j 630 210
+ p 1455 1
+ w 1371
j 670 210
+ p 1455 2
+ w 1395
j 590 330
+ p 1456 1
+ w 1371
j 570 320
+ p 1457 2
+ w 1371
j 530 320
+ p 1457 1
+ w 1387
j 480 320
+ p 1458 +
+ w 1387
j 160 260
+ p 1459 -
+ w 1424
j 260 260
+ p 1460 -
+ w 1403
j 260 300
+ p 1460 +
+ w 1428
j 510 180
+ p 1461 -
+ w 1371
j 590 160
+ p 1461 OUT
+ w 1416
j 310 90
+ p 1463 b
+ w 1399
j 250 300
+ s 1475
+ w 1428
j 160 300
+ s 1476
+ p 1459 +
j 690 310
+ s 1481
+ p 1454 e
j 590 370
+ s 1495
+ p 1456 2
j 480 360
+ s 1494
+ p 1458 -
j 170 260
+ s 2269
+ w 1424
j 210 260
+ s 2270
+ w 1403
j 480 410
+ p 2432 +
+ s 2440
j 590 430
+ s 1496
+ w 2406
j 560 430
+ p 2432 OUT
+ w 2406
j 480 450
+ p 2432 -
+ w 2416
j 480 510
+ p 2433 2
+ w 2416
j 510 520
+ s 2625
+ w 2416
j 540 520
+ s 2626
+ w 2406
j 340 280
+ p 1460 OUT
+ w 3097
j 510 140
+ p 1461 +
+ w 3097
j 360 570
+ p 3090 2
+ w 3108
j 440 510
+ p 2433 1
+ w 3108
j 310 490
+ p 3085 -
+ w 3103
j 390 470
+ p 3085 OUT
+ w 3108
j 410 510
+ w 3108
+ w 3108
j 310 450
+ s 3122
+ p 3085 +
j 290 110
+ p 1463 e
+ w 1403
j 230 260
+ w 1403
+ w 1403
j 230 180
+ w 1403
+ w 1403
j 330 110
+ p 1463 c
+ w 3097
j 370 180
+ w 3097
+ w 3097
j 290 180
+ p 3459 1
+ w 1403
j 320 180
+ p 3459 2
+ w 3097
j 300 250
+ s 3625
+ p 1460 V-
j 300 310
+ s 3626
+ p 1460 V+
j 550 130
+ s 3627
+ p 1461 V+
j 550 190
+ s 3628
+ p 1461 V-
j 350 440
+ s 3629
+ p 3085 V+
j 350 500
+ s 3630
+ p 3085 V-
j 520 400
+ s 3631
+ p 2432 V+
j 520 460
+ s 3632
+ p 2432 V-
j 220 490
+ p 3091 2
+ w 3103
j 320 570
+ p 3090 1
+ w 3103
j 270 490
+ w 3103
+ w 3103
j 180 490
+ p 3091 1
+ w 3097
j 160 540
+ p 5398 +
+ w 5401
j 180 520
+ p 5399 1
+ w 5401
j 220 520
+ p 5399 2
+ w 3103
j 270 520
+ w 3103
+ w 3103
j 160 580
+ s 5407
+ p 5398 -
@attributes
a 0 s 0:13 0 0 0 hln 100 PAGETITLE=SAWTOOTH
a 0 s 0:13 0 0 0 hln 100 PAGENO=3
a 0 s 0:13 0 0 0 hln 100 PAGESIZE=B
a 0 s 0:13 0 0 0 hln 100 PAGECOUNT=8
@graphics
*page 4 0 1520 970 iB
@ports
port 5079 GND_EARTH 810 320 h
port 5080 GND_EARTH 750 270 h
port 5081 GND_EARTH 810 180 U
port 5082 GND_ANALOG 890 390 h
port 5083 GND_ANALOG 980 160 u
port 5084 GND_ANALOG 980 300 h
port 5085 GND_ANALOG 940 210 h
port 5086 GND_ANALOG 730 610 h
port 5087 GND_ANALOG 730 470 u
port 5088 GND_ANALOG 680 630 h
port 5091 GND_ANALOG 1000 460 v
port 5092 GND_ANALOG 1000 600 v
port 5093 OFFPAGE 1020 620 v
a 1 xr 3 0 23 8 hcn 100 LABEL=RAMPTRIG2
port 5094 OFFPAGE 990 620 v
a 1 xr 3 0 23 8 hcn 100 LABEL=RAMPTRIG1
port 5095 GND_ANALOG 950 510 h
port 5096 OFFPAGE 1070 530 u
a 1 xr 3 0 23 8 hcn 100 LABEL=VTRIG
port 5098 OFFPAGE 730 230 v
a 1 xr 3 0 23 8 hcn 100 LABEL=RTRIG4
port 5097 OFFPAGE 700 230 v
a 1 xr 3 0 23 8 hcn 100 LABEL=RTRIG3
port 5367 OFFPAGE 590 230 h
a 1 xr 3 0 23 8 hcn 100 LABEL=VSQUARE1
@parts
part 5043 VDC 810 280 h
a 0 sp 0 0 22 37 hln 100 PART=VDC
a 1 u 13 0 -11 18 hcn 100 DC=15
a 0 a 0:13 0 0 0 hln 100 PKGREF=V205
a 1 ap 9 0 24 7 hcn 100 REFDES=V205
part 5044 uA741 770 270 U
a 0 sp 11 0 0 70 hcn 100 PART=uA741
a 0 s 0:13 0 0 0 hln 100 PKGTYPE=DIP8
a 0 s 0:13 0 0 0 hln 100 GATE=
a 0 a 0:13 0 0 0 hln 100 PKGREF=U97
a 0 ap 9 0 14 0 hln 100 REFDES=U97
part 5045 VDC 810 180 h
a 0 sp 0 0 22 37 hln 100 PART=VDC
a 1 u 13 0 -11 18 hcn 100 DC=15
a 0 a 0:13 0 0 0 hln 100 PKGREF=V206
a 1 ap 9 0 24 7 hcn 100 REFDES=V206
part 5047 c 790 140 h
a 0 sp 0 0 0 10 hlb 100 PART=c
a 0 s 0:13 0 0 0 hln 100 PKGTYPE=CK05
a 0 s 0:13 0 0 0 hln 100 GATE=
a 0 u 13 0 15 25 hln 100 VALUE=10u
a 0 u 0 0 0 0 hln 100 IC=0
a 0 a 0:13 0 0 0 hln 100 PKGREF=C46
a 0 ap 9 0 15 0 hln 100 REFDES=C46
part 5048 R 890 340 h
a 0 sp 0 0 0 10 hlb 100 PART=R
a 0 s 0:13 0 0 0 hln 100 PKGTYPE=
a 0 a 0:13 0 0 0 hln 100 PKGREF=R215
a 0 ap 9 0 15 0 hln 100 REFDES=R215
part 5049 VDC 980 300 u
a 0 sp 0 0 22 37 hln 100 PART=VDC
a 1 u 13 0 -11 18 hcn 100 DC=15
a 0 a 0:13 0 0 0 hln 100 PKGREF=V207
a 1 ap 9 0 24 7 hcn 100 REFDES=V207
part 5050 VDC 980 200 u
a 0 sp 0 0 22 37 hln 100 PART=VDC
a 1 u 13 0 -11 18 hcn 100 DC=15
a 0 a 0:13 0 0 0 hln 100 PKGREF=V208
a 1 ap 9 0 24 7 hcn 100 REFDES=V208
part 5051 R 880 250 h
a 0 sp 0 0 0 10 hlb 100 PART=R
a 0 s 0:13 0 0 0 hln 100 PKGTYPE=
a 0 a 0:13 0 0 0 hln 100 PKGREF=R216
a 0 ap 9 0 15 0 hln 100 REFDES=R216
part 5053 VDC 890 350 h
a 0 sp 0 0 22 37 hln 100 PART=VDC
a 1 u 13 0 -11 18 hcn 100 DC=5.34
a 0 a 0:13 0 0 0 hln 100 PKGREF=V210
a 1 ap 9 0 24 7 hcn 100 REFDES=V210
part 5054 R 960 340 h
a 0 sp 0 0 0 10 hlb 100 PART=R
a 0 s 0:13 0 0 0 hln 100 PKGTYPE=
a 0 a 0:13 0 0 0 hln 100 PKGREF=R217
a 0 ap 9 0 15 0 hln 100 REFDES=R217
part 5056 uA741 940 210 h
a 0 sp 11 0 0 70 hcn 100 PART=uA741
a 0 s 0:13 0 0 0 hln 100 PKGTYPE=
a 0 a 0:13 0 0 0 hln 100 PKGREF=U98
a 0 ap 9 0 -24 -8 hln 100 REFDES=U98
part 5057 VDC 730 470 h
a 0 sp 0 0 22 37 hln 100 PART=VDC
a 1 u 13 0 -11 18 hcn 100 DC=15
a 0 a 0:13 0 0 0 hln 100 PKGREF=V211
a 1 ap 9 0 24 7 hcn 100 REFDES=V211
part 5058 VDC 730 570 h
a 0 sp 0 0 22 37 hln 100 PART=VDC
a 1 u 13 0 -11 18 hcn 100 DC=15
a 0 a 0:13 0 0 0 hln 100 PKGREF=V212
a 1 ap 9 0 24 7 hcn 100 REFDES=V212
part 5059 R 680 580 d
a 0 sp 0 0 0 10 hlb 100 PART=R
a 0 s 0:13 0 0 0 hln 100 PKGTYPE=
a 0 u 13 0 15 25 hln 100 VALUE=31.83k
a 0 a 0:13 0 0 0 hln 100 PKGREF=R219
a 0 ap 9 0 15 0 hln 100 REFDES=R219
part 5062 VDC 1000 600 u
a 0 sp 0 0 22 37 hln 100 PART=VDC
a 1 u 13 0 -11 18 hcn 100 DC=15
a 0 a 0:13 0 0 0 hln 100 PKGREF=V213
a 1 ap 9 0 24 7 hcn 100 REFDES=V213
part 5063 VDC 1000 500 u
a 0 sp 0 0 22 37 hln 100 PART=VDC
a 1 u 13 0 -11 18 hcn 100 DC=15
a 0 a 0:13 0 0 0 hln 100 PKGREF=V214
a 1 ap 9 0 24 7 hcn 100 REFDES=V214
part 5064 R 720 450 h
a 0 sp 0 0 0 10 hlb 100 PART=R
a 0 s 0:13 0 0 0 hln 100 PKGTYPE=
a 0 u 13 0 15 25 hln 100 VALUE=31.83k
a 0 a 0:13 0 0 0 hln 100 PKGREF=R220
a 0 ap 9 0 15 0 hln 100 REFDES=R220
part 5065 uA741 690 560 U
a 0 sp 11 0 0 70 hcn 100 PART=uA741
a 0 s 0:13 0 0 0 hln 100 PKGTYPE=
a 0 a 0:13 0 0 0 hln 100 PKGREF=U100
a 0 ap 9 0 14 0 hln 100 REFDES=U100
part 5066 R 900 620 h
a 0 sp 0 0 0 10 hlb 100 PART=R
a 0 s 0:13 0 0 0 hln 100 PKGTYPE=
a 0 a 0:13 0 0 0 hln 100 PKGREF=R221
a 0 ap 9 0 15 0 hln 100 REFDES=R221
part 5067 LM675 960 510 h
a 0 sp 11 0 48 68 hln 100 PART=LM675
a 0 s 0:13 0 0 0 hln 100 PKGTYPE=
a 0 a 0:13 0 0 0 hln 100 PKGREF=U101
a 0 ap 9 0 14 0 hln 100 REFDES=U101
part 5060 c 660 560 u
a 0 sp 0 0 0 10 hlb 100 PART=c
a 0 s 0:13 0 0 0 hln 100 PKGTYPE=
a 0 u 13 0 15 25 hln 100 VALUE=1u
a 0 a 0:13 0 0 0 hln 100 PKGREF=C47
a 0 ap 9 0 15 0 hln 100 REFDES=C47
part 1525 titleblk 1520 970 h
a 1 s 13 0 350 10 hcn 100 PAGESIZE=B
a 1 s 13 0 180 60 hcn 100 PAGETITLE=triangle 
a 1 s 13 0 340 95 hrn 100 PAGECOUNT=8
a 1 s 13 0 300 95 hrn 100 PAGENO=4
@conn
w 4861
s 750 270 770 270 4860
a 0 up 33 0 760 269 hct 100 V=
w 4923
a 0 up 0:33 0 0 0 hln 100 V=
s 920 250 940 250 4922
s 960 340 940 340 4926
s 940 340 930 340 4930
s 940 340 940 250 4928
a 0 up 33 0 942 295 hlt 100 V=
w 4932
a 0 up 0:33 0 0 0 hln 100 V=
s 890 340 890 350 4931
a 0 up 33 0 892 345 hlt 100 V=
w 4934
a 0 up 0:33 0 0 0 hln 100 V=
s 850 250 880 250 4933
s 880 140 880 250 4935
a 0 up 33 0 882 195 hlt 100 V=
s 820 140 880 140 4937
w 4952
a 0 up 0:33 0 0 0 hln 100 V=
s 680 520 680 450 4951
a 0 up 33 0 682 485 hlt 100 V=
s 680 450 720 450 4953
s 690 520 680 520 4955
w 4958
a 0 up 0:33 0 0 0 hln 100 V=
s 680 560 690 560 4957
s 680 560 680 580 4959
a 0 up 33 0 682 570 hlt 100 V=
s 660 560 680 560 4961
a 0 up 33 0 670 559 hct 100 V=
w 4964
s 680 620 680 630 4963
a 0 up 33 0 682 625 hlt 100 V=
w 4993
a 0 up 0:33 0 0 0 hln 100 V=
s 990 620 950 620 4996
s 950 550 960 550 4994
s 950 620 940 620 5000
s 950 620 950 550 4998
a 0 up 33 0 952 600 hlt 100 V=
w 5002
a 0 up 0:33 0 0 0 hln 100 V=
s 950 510 960 510 5001
a 0 up 33 0 955 509 hct 100 V=
w 5004
a 0 up 0:33 0 0 0 hln 100 V=
s 1020 620 1070 620 5003
s 1070 530 1040 530 5005
s 1070 620 1070 530 5007
a 0 up 33 0 1072 575 hlt 100 V=
w 5012
a 0 up 0:33 0 0 0 hln 100 V=
s 740 230 770 230 5011
s 790 140 740 140 5013
s 740 140 740 230 5015
a 0 up 33 0 742 195 hlt 100 V=
s 740 230 730 230 5017
w 5020
a 0 up 0:33 0 0 0 hln 100 V=
s 760 450 790 450 5019
s 790 450 790 540 5021
a 0 up 33 0 792 495 hlt 100 V=
s 790 540 770 540 5023
s 880 540 790 540 5025
a 0 up 33 0 835 539 hct 100 V=
s 880 620 880 540 5027
s 900 620 880 620 5029
w 5360
a 0 up 0:33 0 0 0 hln 100 V=
s 1000 340 1030 340 4939
s 1030 340 1030 230 4941
a 0 up 33 0 1032 285 hlt 100 V=
s 1030 230 1020 230 4943
s 1030 340 1030 420 4945
s 630 560 630 420 4949
s 1030 420 630 420 4947
a 0 up 33 0 830 419 hct 100 V=
w 5010
a 0 up 0:33 0 0 0 hln 100 V=
s 590 230 700 230 5368
a 0 up 33 0 635 229 hct 100 V=
@junction
j 940 340
+ w 4923
+ w 4923
j 950 620
+ w 4993
+ w 4993
j 740 230
+ w 5012
+ w 5012
j 790 540
+ w 5020
+ w 5020
j 820 140
+ p 5047 2
+ w 4934
j 790 140